%chk=h2o_ccsd.chk
%nproc=4
%njobs=6
%Gver=g16
%mem=20gb
# ccsd/cc-pvtz

gebf { dis=3.0 maxsubfrag=4 frag=link }

0 0
C 5.715478 2.964621 2.817451
H 6.693830 3.426649 2.949584
H 5.817678 1.950094 3.202666
H 5.374984 2.896526 1.784239
C 4.608481 3.675359 3.596715
H 4.454910 4.647966 3.129221
H 4.898741 3.780534 4.642079
N 3.358861 2.915063 3.752408
H 3.585585 2.081022 4.274971
H 2.753839 3.539575 4.266250
H 2.956472 2.726498 2.845420
Cl 2.737581 2.344463 1.108642
C 4.019673 -1.437350 -0.444038
H 3.778212 -2.193126 0.303358
H 4.759387 -1.976078 -1.036234
H 4.566324 -0.679024 0.116509
C 2.857195 -0.862601 -1.254069
H 2.358078 -1.741970 -1.661122
H 3.228393 -0.370542 -2.153063
N 1.888290 -0.129370 -0.424950
H 1.585731 -0.787047 0.279337
H 2.267148 0.692803 0.022932
H 1.002895 0.084014 -0.861577
Cl -2.073713 -0.050932 0.094640
C -6.375996 -1.135210 -0.347586
H -6.812936 -1.724563 0.458545
H -7.184161 -1.013139 -1.068743
H -5.577712 -1.707640 -0.819992
C -5.703434 0.105486 0.240781
H -5.076140 0.519620 -0.548583
H -5.145542 -0.227918 1.115823
N -6.664437 1.140054 0.653070
H -6.250962 2.016233 0.938464
H -7.342197 1.354340 -0.064442
H -7.310999 0.741293 1.318687
Cl -8.731008 2.120463 -1.071258
C -8.066300 -2.718190 4.696310
H -8.748320 -2.534109 3.866212
H -7.280274 -3.296287 4.210441
H -8.709332 -3.288654 5.366521
C -7.715567 -1.451504 5.477549
H -7.449915 -1.795711 6.477073
H -8.579222 -0.797153 5.595976
N -6.570497 -0.764063 4.861044
H -6.055429 -0.199886 5.521733
H -5.917546 -1.469627 4.551310
H -6.964647 -0.190004 4.129469
Cl -0.369238 -0.695859 6.681314
C -7.335607 4.904067 -4.846429
H -6.317907 5.278263 -4.957619
H -7.610359 4.500969 -5.821172
H -7.871216 5.772412 -4.462765
C -7.633395 3.703426 -3.947750
H -7.076977 2.883232 -4.401382
H -8.660731 3.507969 -3.640379
N -7.057559 3.920061 -2.611590
H -6.056690 3.801747 -2.545533
H -7.321832 4.793137 -2.178002
H -7.647428 3.297944 -2.077619
Cl -9.952315 4.462238 2.076028
C -12.040560 -0.157945 1.580565
H -11.201596 -0.852680 1.540782
H -12.360432 0.079632 2.595128
H -12.781134 -0.769451 1.065094
C -11.673039 1.106555 0.803512
H -12.552724 1.738560 0.925263
H -11.610935 0.865000 -0.257569
N -10.448619 1.852929 1.131479
H -9.842805 1.678078 0.342482
H -10.452958 2.844112 1.325479
H -9.836404 1.440713 1.820950
Cl -4.998664 5.276406 6.918626
C -3.132436 1.592444 9.776589
H -2.061286 1.623823 9.975973
H -3.599121 1.303989 10.718449
H -3.209236 0.713650 9.136336
C -3.863761 2.803376 9.196375
H -3.774312 3.770015 9.692064
H -4.948727 2.710373 9.244331
N -3.575892 3.017119 7.769740
H -2.566837 3.057749 7.785755
H -4.045685 2.300134 7.235580
H -4.070602 3.862702 7.524077
Cl -8.511683 0.137654 2.623980
C -3.824307 0.121111 -3.505966
H -4.475129 0.974226 -3.314327
H -4.060558 -0.265994 -4.497145
H -3.913830 -0.666791 -2.758105
C -2.404685 0.664163 -3.672128
H -2.420822 1.310946 -4.549346
H -1.668746 -0.137665 -3.731846
N -2.060757 1.437684 -2.469124
H -1.124277 1.788407 -2.610890
H -2.696540 2.222235 -2.450152
H -2.172305 0.808002 -1.687358
Cl -0.704263 4.952505 0.143566
C -3.201892 7.427396 -0.895762
H -3.976199 8.039837 -1.357785
H -2.460587 8.200043 -0.691842
H -2.756198 6.730098 -1.605152
C -3.804923 6.642561 0.269669
H -4.090833 7.354854 1.043616
H -3.004180 6.008917 0.650993
N -4.883121 5.800793 -0.271399
H -5.649799 6.233916 -0.766081
H -4.564343 5.037723 -0.851230
H -5.199694 5.360389 0.580613
Cl -7.212614 6.625699 -1.496901
C -8.573763 3.528344 5.616465
H -9.457599 3.375149 4.997219
H -8.561544 2.849460 6.469147
H -8.661782 4.530363 6.036359
C -7.340913 3.365901 4.726783
H -7.403889 2.537346 4.021354
H -6.411701 3.257273 5.286127
N -7.308425 4.475997 3.762174
H -6.563312 4.180532 3.147676
H -8.184957 4.723755 3.325816
H -7.029601 5.396495 4.070462
Cl -1.987418 7.512312 3.928955
C -0.982632 2.311881 3.093142
H -1.049283 1.233779 2.947009
H -0.126455 2.722078 2.557605
H -0.851605 2.560001 4.146408
C -2.347909 2.876848 2.699859
H -2.379980 3.874476 3.137818
H -3.246130 2.464442 3.159447
N -2.503989 2.920872 1.237825
H -2.415487 2.012503 0.805235
H -3.469164 3.214945 1.283197
H -1.914756 3.611579 0.795301
Cl 3.578063 0.720344 5.673199
C 3.115042 2.489777 8.749139
H 3.558072 2.655328 9.731187
H 3.941928 2.108974 8.149683
H 2.878816 3.479935 8.359415
C 2.042686 1.401828 8.814416
H 1.360042 1.614304 9.637185
H 2.475179 0.404812 8.898143
N 1.271475 1.390762 7.561838
H 0.818984 2.288391 7.463790
H 1.963772 1.171576 6.859853
H 0.587888 0.648629 7.516586
Cl -4.162634 -2.102221 4.207281
C -2.660825 -3.868757 7.466267
H -1.669193 -3.575370 7.121750
H -2.748368 -4.366707 8.431919
H -2.943985 -4.507645 6.629761
C -3.566088 -2.645491 7.614451
H -3.555267 -2.381400 8.671919
H -4.614428 -2.914878 7.485946
N -3.139112 -1.533205 6.751691
H -3.295197 -1.707787 5.769215
H -3.770117 -0.744726 6.766956
H -2.200556 -1.220885 6.955820
Cl -4.966779 0.658300 6.634495
C 1.410862 5.095647 -3.090190
H 1.436617 4.300813 -3.835627
H 0.378778 5.322165 -2.822625
H 1.792829 6.048868 -3.455662
C 2.298758 4.541605 -1.975507
H 2.508573 5.393501 -1.328707
H 3.317793 4.395607 -2.333770
N 1.740132 3.469415 -1.137541
H 0.985811 3.843701 -0.579857
H 1.313714 2.734051 -1.682983
H 2.337209 3.050824 -0.438699
Cl -6.660042 7.364844 3.225021
C -1.668906 7.165422 8.130210
H -2.249043 8.061875 7.911322
H -2.128769 6.177848 8.093841
H -1.315250 7.493245 9.107737
C -0.511386 6.929551 7.159460
H 0.310502 6.368887 7.604720
H -0.083294 7.823314 6.705560
N -0.919200 5.939601 6.150735
H -1.477315 6.376728 5.431340
H -0.060327 5.704535 5.674100
H -1.128880 5.099798 6.671181
Cl -0.851337 3.680855 7.840383
C 1.444706 8.049424 0.782720
H 1.495187 8.944860 0.163247
H 2.370737 7.785534 1.293533
H 1.237736 7.201515 0.129792
C 0.328239 8.048297 1.827393
H -0.653228 8.300831 1.426086
H 0.407655 8.834365 2.578319
N 0.208770 6.645820 2.254740
H -0.065762 5.984877 1.542079
H 0.880524 6.150029 2.823104
H -0.599927 6.594532 2.857632
Cl 0.713382 1.438806 -2.717612
C -9.107207 9.275002 0.686964
H -8.202434 9.287174 0.079231
H -9.910408 9.913150 0.318541
H -8.898916 9.624933 1.698034
C -9.669911 7.858979 0.813787
H -10.075879 7.588985 -0.161094
H -10.361246 7.582231 1.609756
N -8.642436 6.819813 0.981920
H -7.897259 7.105335 1.601023
H -9.069390 6.005706 1.400298
H -8.199059 6.573039 0.108639
Cl -5.281693 3.596833 1.858252
C -5.993542 8.848223 6.708790
H -6.063671 9.670742 7.420580
H -6.824652 9.173371 6.082982
H -6.312367 7.978062 7.282610
C -4.658501 8.723490 5.973977
H -3.835141 8.667209 6.686023
H -4.209145 9.535772 5.402683
N -4.564837 7.491041 5.176396
H -4.731826 6.743785 5.835048
H -5.298382 7.460383 4.482802
H -3.680695 7.349464 4.709119
Cl 1.356726 4.962220 4.508001
C 1.659313 -3.437463 5.133463
H 0.619964 -3.468695 4.806542
H 2.254343 -4.333311 4.955989
H 1.644577 -3.318633 6.216866
C 2.401691 -2.306474 4.421015
H 2.734916 -2.601546 3.426032
H 3.319344 -1.973189 4.905713
N 1.606474 -1.069103 4.401456
H 1.066605 -1.192295 3.556787
H 1.026285 -0.793401 5.180859
H 2.234614 -0.280102 4.346525
Cl 0.790650 -1.916081 1.731870
C -1.884898 -3.618272 0.113957
H -1.995722 -2.762018 -0.551362
H -0.825056 -3.826076 -0.033188
H -2.352615 -4.427989 -0.446131
C -2.483249 -3.317322 1.488456
H -2.276277 -4.134085 2.179947
H -3.538878 -3.258973 1.223236
N -2.046474 -2.042546 2.078383
H -1.052912 -2.135755 2.234098
H -2.141762 -1.307556 1.392228
H -2.613543 -1.815405 2.882709
Cl -4.182770 3.541561 -2.209260


